CemigDFeeders/PMSU15/PMSU15CargaBT_Dez.dss
new load.3000116849M1 bus1=RML1051922764.1.2.3.0,Phases=3,kv=0.22,kW=4.87792,pf=0.92,Vminpu=0.92,Vmaxpu=1.5,model=1,daily=COM3_2,status=variable
new load.3000116850M1 bus1=RML1051926418.1.2.3.0,Phases=3,kv=0.22,kW=0.90878,pf=0.92,Vminpu=0.92,Vmaxpu=1.5,model=1,daily=COM2_2,status=variable
new load.3000116851M1 bus1=RML1051922771.1.2.3.0,Phases=3,kv=0.22,kW=0.26428,pf=0.92,Vminpu=0.92,Vmaxpu=1.5,model=1,daily=COM1_4,status=variable
new load.3000116852M1 bus1=RML1051922757.1.2.3.0,Phases=3,kv=0.22,kW=1.14336,pf=0.92,Vminpu=0.92,Vmaxpu=1.5,model=1,daily=COM2_2,status=variable
new load.3000116853M1 bus1=RML1051922778.1.2.0,Phases=2,kv=0.22,kW=0.56162,pf=0.92,Vminpu=0.92,Vmaxpu=1.5,model=1,daily=COM1_4,status=variable
new load.3000116854M1 bus1=RML1051928882.1.2.0,Phases=2,kv=0.22,kW=0.83368,pf=0.92,Vminpu=0.92,Vmaxpu=1.5,model=1,daily=COM1_4,status=variable
new load.3000116855M1 bus1=RML1051925564.1.2.3.0,Phases=3,kv=0.22,kW=1.04498,pf=0.92,Vminpu=0.92,Vmaxpu=1.5,model=1,daily=RES2_2,status=variable
new load.3000116858M1 bus1=RML1051925564.1.2.3.0,Phases=3,kv=0.22,kW=1.72962,pf=0.92,Vminpu=0.92,Vmaxpu=1.5,model=1,daily=RES3_2,status=variable
new load.3000116859M1 bus1=RML1051925571.1.2.3.0,Phases=3,kv=0.22,kW=0.2974,pf=0.92,Vminpu=0.92,Vmaxpu=1.5,model=1,daily=RES3_2,status=variable
new load.3000116860M1 bus1=RML1051925571.1.2.3.0,Phases=3,kv=0.22,kW=1.05504,pf=0.92,Vminpu=0.92,Vmaxpu=1.5,model=1,daily=RES4_3,status=variable
new load.3000116862M1 bus1=RML1051925571.1.2.3.0,Phases=3,kv=0.22,kW=0.70142,pf=0.92,Vminpu=0.92,Vmaxpu=1.5,model=1,daily=RES2_2,status=variable
new load.3000116863M1 bus1=RML1051925571.1.2.3.0,Phases=3,kv=0.22,kW=1.73744,pf=0.92,Vminpu=0.92,Vmaxpu=1.5,model=1,daily=RES3_2,status=variable
new load.3000116864M1 bus1=RML1051925571.1.2.3.0,Phases=3,kv=0.22,kW=2.20528,pf=0.92,Vminpu=0.92,Vmaxpu=1.5,model=1,daily=RES4_3,status=variable
new load.3000116865M1 bus1=RML1051925571.1.2.3.0,Phases=3,kv=0.22,kW=1.30264,pf=0.92,Vminpu=0.92,Vmaxpu=1.5,model=1,daily=RES2_2,status=variable
new load.3000116866M1 bus1=RML1051925571.1.2.3.0,Phases=3,kv=0.22,kW=0.9233,pf=0.92,Vminpu=0.92,Vmaxpu=1.5,model=1,daily=RES2_2,status=variable
new load.3000116867M1 bus1=RML1051925571.1.2.3.0,Phases=3,kv=0.22,kW=0.81594,pf=0.92,Vminpu=0.92,Vmaxpu=1.5,model=1,daily=RES2_2,status=variable
new load.3000116868M1 bus1=RML1051925571.1.2.3.0,Phases=3,kv=0.22,kW=0.6871,pf=0.92,Vminpu=0.92,Vmaxpu=1.5,model=1,daily=RES2_2,status=variable
new load.3000116869M1 bus1=RML1051925571.1.2.3.0,Phases=3,kv=0.22,kW=0.59406,pf=0.92,Vminpu=0.92,Vmaxpu=1.5,model=1,daily=RES2_2,status=variable
new load.3000116870M1 bus1=RML1051925571.1.2.3.0,Phases=3,kv=0.22,kW=0.65848,pf=0.92,Vminpu=0.92,Vmaxpu=1.5,model=1,daily=RES2_2,status=variable
new load.3000116871M1 bus1=RML1051925571.1.2.3.0,Phases=3,kv=0.22,kW=0.6871,pf=0.92,Vminpu=0.92,Vmaxpu=1.5,model=1,daily=RES2_2,status=variable
new load.3000116872M1 bus1=RML1051925571.1.2.3.0,Phases=3,kv=0.22,kW=0.71574,pf=0.92,Vminpu=0.92,Vmaxpu=1.5,model=1,daily=RES2_2,status=variable
new load.3000116873M1 bus1=RML1051925571.1.2.3.0,Phases=3,kv=0.22,kW=2.25288,pf=0.92,Vminpu=0.92,Vmaxpu=1.5,model=1,daily=RES4_3,status=variable
new load.3000116874M1 bus1=RML1051925571.1.2.3.0,Phases=3,kv=0.22,kW=0.44186,pf=0.92,Vminpu=0.92,Vmaxpu=1.5,model=1,daily=RES1_2,status=variable
new load.3000116875M1 bus1=RML1051925571.1.2.3.0,Phases=3,kv=0.22,kW=0.83464,pf=0.92,Vminpu=0.92,Vmaxpu=1.5,model=1,daily=RES1_2,status=variable
new load.3000283060M1 bus1=RML1051929071.2.3.0,Phases=2,kv=0.22,kW=0.91826,pf=0.92,Vminpu=0.92,Vmaxpu=1.5,model=1,daily=RES2_5,status=variable
new load.3000283383M1 bus1=RML1051922729.1.2.3.0,Phases=3,kv=0.22,kW=1.588,pf=0.92,Vminpu=0.92,Vmaxpu=1.5,model=1,daily=COM1_8,status=variable
new load.3000283384M1 bus1=RML1051922715.1.2.3.0,Phases=3,kv=0.22,kW=0.86348,pf=0.92,Vminpu=0.92,Vmaxpu=1.5,model=1,daily=COM1_8,status=variable
new load.3000283390M1 bus1=RML1051922673.1.2.3.0,Phases=3,kv=0.22,kW=1.09174,pf=0.92,Vminpu=0.92,Vmaxpu=1.5,model=1,daily=COM1_8,status=variable
new load.3000283391M1 bus1=RML1051922680.1.2.3.0,Phases=3,kv=0.22,kW=2.80356,pf=0.92,Vminpu=0.92,Vmaxpu=1.5,model=1,daily=COM3_5,status=variable
new load.3000283392M1 bus1=RML1051922680.1.2.3.0,Phases=3,kv=0.22,kW=0.97264,pf=0.92,Vminpu=0.92,Vmaxpu=1.5,model=1,daily=COM1_8,status=variable
new load.3000283393M1 bus1=RML1051922680.1.2.3.0,Phases=3,kv=0.22,kW=0.66002,pf=0.92,Vminpu=0.92,Vmaxpu=1.5,model=1,daily=COM1_8,status=variable
new load.3000283394M1 bus1=RML1051922680.1.2.3.0,Phases=3,kv=0.22,kW=0.76918,pf=0.92,Vminpu=0.92,Vmaxpu=1.5,model=1,daily=COM1_8,status=variable
new load.3000283395M1 bus1=RML1051922680.1.2.3.0,Phases=3,kv=0.22,kW=0.73444,pf=0.92,Vminpu=0.92,Vmaxpu=1.5,model=1,daily=COM1_8,status=variable
new load.3000283397M1 bus1=RML1051922680.1.2.3.0,Phases=3,kv=0.22,kW=3.91202,pf=0.92,Vminpu=0.92,Vmaxpu=1.5,model=1,daily=RES6_7,status=variable
new load.3000283398M1 bus1=RML1051922680.1.2.3.0,Phases=3,kv=0.22,kW=0.37218,pf=0.92,Vminpu=0.92,Vmaxpu=1.5,model=1,daily=COM1_8,status=variable
new load.3000283399M1 bus1=RML1051922680.1.2.3.0,Phases=3,kv=0.22,kW=0.50586,pf=0.92,Vminpu=0.92,Vmaxpu=1.5,model=1,daily=RES1_3,status=variable
new load.3000283400M1 bus1=RML1051922680.1.2.3.0,Phases=3,kv=0.22,kW=1.3329,pf=0.92,Vminpu=0.92,Vmaxpu=1.5,model=1,daily=RES3_4,status=variable
new load.3000283401M1 bus1=RML1051922680.1.2.3.0,Phases=3,kv=0.22,kW=0.80628,pf=0.92,Vminpu=0.92,Vmaxpu=1.5,model=1,daily=RES2_5,status=variable
new load.3000283402M1 bus1=RML1051922680.1.2.3.0,Phases=3,kv=0.22,kW=1.35736,pf=0.92,Vminpu=0.92,Vmaxpu=1.5,model=1,daily=RES3_4,status=variable
new load.3000283403M1 bus1=RML1051922680.1.2.3.0,Phases=3,kv=0.22,kW=0.31914,pf=0.92,Vminpu=0.92,Vmaxpu=1.5,model=1,daily=RES2_5,status=variable
new load.3000283404M1 bus1=RML1051922680.1.2.3.0,Phases=3,kv=0.22,kW=0.6553,pf=0.92,Vminpu=0.92,Vmaxpu=1.5,model=1,daily=RES1_3,status=variable
new load.3000283405M1 bus1=RML1051922680.1.2.3.0,Phases=3,kv=0.22,kW=0.78388,pf=0.92,Vminpu=0.92,Vmaxpu=1.5,model=1,daily=RES2_5,status=variable
new load.3000283407M1 bus1=RML1051922680.1.2.3.0,Phases=3,kv=0.22,kW=0.94272,pf=0.92,Vminpu=0.92,Vmaxpu=1.5,model=1,daily=RES1_3,status=variable
new load.3000283408M1 bus1=RML1051922680.1.2.3.0,Phases=3,kv=0.22,kW=0.83986,pf=0.92,Vminpu=0.92,Vmaxpu=1.5,model=1,daily=RES2_5,status=variable
new load.3000283409M1 bus1=RML1051922680.1.2.3.0,Phases=3,kv=0.22,kW=0.89586,pf=0.92,Vminpu=0.92,Vmaxpu=1.5,model=1,daily=RES2_5,status=variable
new load.3000283410M1 bus1=RML1051922680.1.2.3.0,Phases=3,kv=0.22,kW=0.70548,pf=0.92,Vminpu=0.92,Vmaxpu=1.5,model=1,daily=RES2_5,status=variable
new load.3000283411M1 bus1=RML1051922680.1.2.3.0,Phases=3,kv=0.22,kW=0.5823,pf=0.92,Vminpu=0.92,Vmaxpu=1.5,model=1,daily=RES2_5,status=variable
new load.3000283412M1 bus1=RML1051922680.1.2.3.0,Phases=3,kv=0.22,kW=0.90706,pf=0.92,Vminpu=0.92,Vmaxpu=1.5,model=1,daily=RES2_5,status=variable
new load.3000283413M1 bus1=RML1051922680.1.2.3.0,Phases=3,kv=0.22,kW=0.5599,pf=0.92,Vminpu=0.92,Vmaxpu=1.5,model=1,daily=RES2_5,status=variable
new load.3000283414M1 bus1=RML1051922680.1.2.3.0,Phases=3,kv=0.22,kW=0.76708,pf=0.92,Vminpu=0.92,Vmaxpu=1.5,model=1,daily=RES2_5,status=variable
new load.3000283415M1 bus1=RML1051922680.1.2.3.0,Phases=3,kv=0.22,kW=0.6775,pf=0.92,Vminpu=0.92,Vmaxpu=1.5,model=1,daily=RES2_5,status=variable
new load.3000283417M1 bus1=RML1051922680.1.2.3.0,Phases=3,kv=0.22,kW=0.55184,pf=0.92,Vminpu=0.92,Vmaxpu=1.5,model=1,daily=RES1_3,status=variable
new load.3000283418M1 bus1=RML1051922680.1.2.3.0,Phases=3,kv=0.22,kW=0.49436,pf=0.92,Vminpu=0.92,Vmaxpu=1.5,model=1,daily=RES1_3,status=variable
new load.3000283419M1 bus1=RML1051922680.1.2.3.0,Phases=3,kv=0.22,kW=0.5935,pf=0.92,Vminpu=0.92,Vmaxpu=1.5,model=1,daily=RES2_5,status=variable
new load.3000283421M1 bus1=RML1051922680.1.2.3.0,Phases=3,kv=0.22,kW=0.25292,pf=0.92,Vminpu=0.92,Vmaxpu=1.5,model=1,daily=RES1_3,status=variable
new load.3000283422M1 bus1=RML1051922680.1.2.3.0,Phases=3,kv=0.22,kW=0.23516,pf=0.92,Vminpu=0.92,Vmaxpu=1.5,model=1,daily=RES2_5,status=variable
new load.3000283423M1 bus1=RML1051922680.1.2.3.0,Phases=3,kv=0.22,kW=0.75878,pf=0.92,Vminpu=0.92,Vmaxpu=1.5,model=1,daily=RES1_3,status=variable
new load.3000283424M1 bus1=RML1051922680.1.2.3.0,Phases=3,kv=0.22,kW=0.29892,pf=0.92,Vminpu=0.92,Vmaxpu=1.5,model=1,daily=RES1_3,status=variable
new load.3000283425M1 bus1=RML1051922680.1.2.3.0,Phases=3,kv=0.22,kW=0.50952,pf=0.92,Vminpu=0.92,Vmaxpu=1.5,model=1,daily=RES2_5,status=variable
new load.3000283426M1 bus1=RML1051922680.1.2.3.0,Phases=3,kv=0.22,kW=0.71108,pf=0.92,Vminpu=0.92,Vmaxpu=1.5,model=1,daily=RES2_5,status=variable
new load.3000283427M1 bus1=RML1051922680.1.2.3.0,Phases=3,kv=0.22,kW=0.62082,pf=0.92,Vminpu=0.92,Vmaxpu=1.5,model=1,daily=RES1_3,status=variable
new load.3000283428M1 bus1=RML1051922680.1.2.3.0,Phases=3,kv=0.22,kW=0.81626,pf=0.92,Vminpu=0.92,Vmaxpu=1.5,model=1,daily=RES1_3,status=variable
new load.3000283429M1 bus1=RML1051922680.1.2.3.0,Phases=3,kv=0.22,kW=0.69428,pf=0.92,Vminpu=0.92,Vmaxpu=1.5,model=1,daily=RES2_5,status=variable
new load.3000283430M1 bus1=RML1051922680.1.2.3.0,Phases=3,kv=0.22,kW=0.5991,pf=0.92,Vminpu=0.92,Vmaxpu=1.5,model=1,daily=RES2_5,status=variable
new load.3000283431M1 bus1=RML1051922680.1.2.3.0,Phases=3,kv=0.22,kW=0.6383,pf=0.92,Vminpu=0.92,Vmaxpu=1.5,model=1,daily=RES2_5,status=variable
new load.3000283433M1 bus1=RML1051922680.1.2.3.0,Phases=3,kv=0.22,kW=0.5935,pf=0.92,Vminpu=0.92,Vmaxpu=1.5,model=1,daily=RES2_5,status=variable
new load.3000283434M1 bus1=RML1051922680.1.2.3.0,Phases=3,kv=0.22,kW=0.34714,pf=0.92,Vminpu=0.92,Vmaxpu=1.5,model=1,daily=RES2_5,status=variable
new load.3000283435M1 bus1=RML1051922680.1.2.3.0,Phases=3,kv=0.22,kW=0.94272,pf=0.92,Vminpu=0.92,Vmaxpu=1.5,model=1,daily=RES1_3,status=variable
new load.3000283436M1 bus1=RML1051922638.3.0,Phases=1,kv=0.127,kW=0.25804,pf=0.92,Vminpu=0.92,Vmaxpu=1.5,model=1,daily=COM1_8,status=variable
new load.3000283437M1 bus1=RML1051922645.1.2.3.0,Phases=3,kv=0.22,kW=1.53988,pf=0.92,Vminpu=0.92,Vmaxpu=1.5,model=1,daily=COM3_5,status=variable
new load.3000283438M1 bus1=RML1051922624.1.2.3.0,Phases=3,kv=0.22,kW=1.25186,pf=0.92,Vminpu=0.92,Vmaxpu=1.5,model=1,daily=RES5_6,status=variable
new load.3000283439M1 bus1=RML1051922631.1.2.3.0,Phases=3,kv=0.22,kW=0.16872,pf=0.92,Vminpu=0.92,Vmaxpu=1.5,model=1,daily=COM1_8,status=variable
new load.3000283440M1 bus1=RML1051922652.1.2.3.0,Phases=3,kv=0.22,kW=0.6898,pf=0.92,Vminpu=0.92,Vmaxpu=1.5,model=1,daily=RES1_3,status=variable
new load.3000283441M1 bus1=RML1051922652.1.2.3.0,Phases=3,kv=0.22,kW=1.0117,pf=0.92,Vminpu=0.92,Vmaxpu=1.5,model=1,daily=RES1_3,status=variable
new load.3000283442M1 bus1=RML1051922652.1.2.3.0,Phases=3,kv=0.22,kW=0.73578,pf=0.92,Vminpu=0.92,Vmaxpu=1.5,model=1,daily=RES1_3,status=variable
new load.3000283443M1 bus1=RML1051922652.1.2.3.0,Phases=3,kv=0.22,kW=0.41388,pf=0.92,Vminpu=0.92,Vmaxpu=1.5,model=1,daily=RES1_3,status=variable
new load.3000283444M1 bus1=RML1051922652.1.2.3.0,Phases=3,kv=0.22,kW=1.75628,pf=0.92,Vminpu=0.92,Vmaxpu=1.5,model=1,daily=RES5_6,status=variable
new load.3000283445M1 bus1=RML1051922652.1.2.3.0,Phases=3,kv=0.22,kW=0.96494,pf=0.92,Vminpu=0.92,Vmaxpu=1.5,model=1,daily=RES4_6,status=variable
new load.3000283446M1 bus1=RML1051922652.1.2.3.0,Phases=3,kv=0.22,kW=1.03942,pf=0.92,Vminpu=0.92,Vmaxpu=1.5,model=1,daily=RES3_4,status=variable
new load.3000283447M1 bus1=RML1051922652.1.2.3.0,Phases=3,kv=0.22,kW=1.03942,pf=0.92,Vminpu=0.92,Vmaxpu=1.5,model=1,daily=RES3_4,status=variable
new load.3000283448M1 bus1=RML1051922652.1.2.3.0,Phases=3,kv=0.22,kW=1.44332,pf=0.92,Vminpu=0.92,Vmaxpu=1.5,model=1,daily=RES5_6,status=variable
new load.3000283449M1 bus1=RML1051922652.1.2.3.0,Phases=3,kv=0.22,kW=0.13452,pf=0.92,Vminpu=0.92,Vmaxpu=1.5,model=1,daily=RES3_4,status=variable
new load.3000283450M1 bus1=RML1051922659.1.0,Phases=1,kv=0.127,kW=0.5161,pf=0.92,Vminpu=0.92,Vmaxpu=1.5,model=1,daily=COM1_8,status=variable
new load.3000283451M1 bus1=RML1051922666.2.3.0,Phases=2,kv=0.22,kW=2.3381,pf=0.92,Vminpu=0.92,Vmaxpu=1.5,model=1,daily=COM3_5,status=variable
new load.3000283452M1 bus1=RML1051922687.2.3.0,Phases=2,kv=0.22,kW=1.47386,pf=0.92,Vminpu=0.92,Vmaxpu=1.5,model=1,daily=COM1_8,status=variable
new load.3000283456M1 bus1=RML1051922722.1.2.3.0,Phases=3,kv=0.22,kW=0.85354,pf=0.92,Vminpu=0.92,Vmaxpu=1.5,model=1,daily=COM1_8,status=variable
new load.3000283457M1 bus1=RML1051922722.1.2.3.0,Phases=3,kv=0.22,kW=0.37714,pf=0.92,Vminpu=0.92,Vmaxpu=1.5,model=1,daily=COM1_8,status=variable
new load.3000283458M1 bus1=RML1051922722.1.2.3.0,Phases=3,kv=0.22,kW=0.82378,pf=0.92,Vminpu=0.92,Vmaxpu=1.5,model=1,daily=COM1_8,status=variable
new load.3000283460M1 bus1=RML1051922736.2.3.0,Phases=2,kv=0.22,kW=2.17854,pf=0.92,Vminpu=0.92,Vmaxpu=1.5,model=1,daily=COM1_8,status=variable
new load.3000283461M1 bus1=RML1051922743.3.0,Phases=1,kv=0.127,kW=0.7543,pf=0.92,Vminpu=0.92,Vmaxpu=1.5,model=1,daily=COM1_8,status=variable
new load.3000283463M1 bus1=RML1056500974.1.2.3.0,Phases=3,kv=0.22,kW=0.81746,pf=0.92,Vminpu=0.92,Vmaxpu=1.5,model=1,daily=RES2_5,status=variable
new load.3000283464M1 bus1=RML1051923814.1.2.3.0,Phases=3,kv=0.22,kW=3.08214,pf=0.92,Vminpu=0.92,Vmaxpu=1.5,model=1,daily=COM2_5,status=variable
new load.3000283465M1 bus1=RML1051923807.2.3.0,Phases=2,kv=0.22,kW=0.0158,pf=0.92,Vminpu=0.92,Vmaxpu=1.5,model=1,daily=COM2_5,status=variable
new load.3000283466M1 bus1=RML1051923835.1.2.3.0,Phases=3,kv=0.22,kW=0.16798,pf=0.92,Vminpu=0.92,Vmaxpu=1.5,model=1,daily=RES2_5,status=variable
new load.3000283467M1 bus1=RML1051923779.1.2.3.0,Phases=3,kv=0.22,kW=1.81888,pf=0.92,Vminpu=0.92,Vmaxpu=1.5,model=1,daily=RES5_6,status=variable
new load.3000283468M1 bus1=RML1051923779.1.2.3.0,Phases=3,kv=0.22,kW=1.6325,pf=0.92,Vminpu=0.92,Vmaxpu=1.5,model=1,daily=RES3_4,status=variable
new load.3000283469M1 bus1=RML1051923779.1.2.3.0,Phases=3,kv=0.22,kW=1.2262,pf=0.92,Vminpu=0.92,Vmaxpu=1.5,model=1,daily=RES2_5,status=variable
new load.3000283470M1 bus1=RML1051923779.1.2.3.0,Phases=3,kv=0.22,kW=1.70586,pf=0.92,Vminpu=0.92,Vmaxpu=1.5,model=1,daily=RES3_4,status=variable
new load.3000283471M1 bus1=RML1051923779.1.2.3.0,Phases=3,kv=0.22,kW=1.36958,pf=0.92,Vminpu=0.92,Vmaxpu=1.5,model=1,daily=RES3_4,status=variable
new load.3000283472M1 bus1=RML1051923779.1.2.3.0,Phases=3,kv=0.22,kW=2.64016,pf=0.92,Vminpu=0.92,Vmaxpu=1.5,model=1,daily=RES4_6,status=variable
new load.3000283473M1 bus1=RML1051923779.1.2.3.0,Phases=3,kv=0.22,kW=0.75028,pf=0.92,Vminpu=0.92,Vmaxpu=1.5,model=1,daily=RES2_5,status=variable
new load.3000283474M1 bus1=RML1051923779.1.2.3.0,Phases=3,kv=0.22,kW=0.60308,pf=0.92,Vminpu=0.92,Vmaxpu=1.5,model=1,daily=RES4_6,status=variable
new load.3000283475M1 bus1=RML1051923779.1.2.3.0,Phases=3,kv=0.22,kW=0.6607,pf=0.92,Vminpu=0.92,Vmaxpu=1.5,model=1,daily=RES2_5,status=variable
new load.3000283476M1 bus1=RML1051923779.1.2.3.0,Phases=3,kv=0.22,kW=0.7765,pf=0.92,Vminpu=0.92,Vmaxpu=1.5,model=1,daily=RES3_4,status=variable
new load.3000283477M1 bus1=RML1051923779.1.2.3.0,Phases=3,kv=0.22,kW=1.05776,pf=0.92,Vminpu=0.92,Vmaxpu=1.5,model=1,daily=RES3_4,status=variable
new load.3000283478M1 bus1=RML1051923779.1.2.3.0,Phases=3,kv=0.22,kW=1.45518,pf=0.92,Vminpu=0.92,Vmaxpu=1.5,model=1,daily=RES3_4,status=variable
new load.3000283479M1 bus1=RML1051923779.1.2.3.0,Phases=3,kv=0.22,kW=1.05776,pf=0.92,Vminpu=0.92,Vmaxpu=1.5,model=1,daily=RES3_4,status=variable
new load.3000283480M1 bus1=RML1051923779.1.2.3.0,Phases=3,kv=0.22,kW=0.72228,pf=0.92,Vminpu=0.92,Vmaxpu=1.5,model=1,daily=RES2_5,status=variable
new load.3000283482M1 bus1=RML1051920370.1.3.0,Phases=2,kv=0.22,kW=1.29236,pf=0.92,Vminpu=0.92,Vmaxpu=1.5,model=1,daily=RES5_6,status=variable
new load.3000283483M1 bus1=RML1051920398.1.2.3.0,Phases=3,kv=0.22,kW=1.4613,pf=0.92,Vminpu=0.92,Vmaxpu=1.5,model=1,daily=RES3_4,status=variable
new load.3000283486M1 bus1=RML1051920405.1.2.3.0,Phases=3,kv=0.22,kW=0.28782,pf=0.92,Vminpu=0.92,Vmaxpu=1.5,model=1,daily=COM1_8,status=variable
new load.3000283487M1 bus1=RML1051920412.2.3.0,Phases=2,kv=0.22,kW=0.44792,pf=0.92,Vminpu=0.92,Vmaxpu=1.5,model=1,daily=RES2_5,status=variable
new load.3000283491M1 bus1=RML1051920454.2.3.0,Phases=2,kv=0.22,kW=1.06198,pf=0.92,Vminpu=0.92,Vmaxpu=1.5,model=1,daily=COM1_8,status=variable
new load.3000283492M1 bus1=RML1051920440.1.2.3.0,Phases=3,kv=0.22,kW=2.60128,pf=0.92,Vminpu=0.92,Vmaxpu=1.5,model=1,daily=COM3_5,status=variable
new load.3000283493M1 bus1=RML1051920377.3.0,Phases=1,kv=0.127,kW=1.13114,pf=0.92,Vminpu=0.92,Vmaxpu=1.5,model=1,daily=RES3_4,status=variable
new load.3000283494M1 bus1=RML1051920363.2.3.0,Phases=2,kv=0.22,kW=1.78154,pf=0.92,Vminpu=0.92,Vmaxpu=1.5,model=1,daily=COM1_8,status=variable
new load.3000283495M1 bus1=RML1060893916.1.2.3.0,Phases=3,kv=0.22,kW=3.75164,pf=0.92,Vminpu=0.92,Vmaxpu=1.5,model=1,daily=COM1_8,status=variable
new load.3000283496M1 bus1=RML1051923793.1.2.3.0,Phases=3,kv=0.22,kW=2.1815,pf=0.92,Vminpu=0.92,Vmaxpu=1.5,model=1,daily=COM3_5,status=variable
new load.3000283497M1 bus1=RML1051923793.1.2.3.0,Phases=3,kv=0.22,kW=1.5553,pf=0.92,Vminpu=0.92,Vmaxpu=1.5,model=1,daily=COM2_5,status=variable
new load.3000283498M1 bus1=RML1051923793.1.2.3.0,Phases=3,kv=0.22,kW=0.03448,pf=0.92,Vminpu=0.92,Vmaxpu=1.5,model=1,daily=RES1_3,status=variable
new load.3000283499M1 bus1=RML1051923793.1.2.3.0,Phases=3,kv=0.22,kW=0.6103,pf=0.92,Vminpu=0.92,Vmaxpu=1.5,model=1,daily=RES2_5,status=variable
new load.3000283500M1 bus1=RML1051923793.1.2.3.0,Phases=3,kv=0.22,kW=0.6271,pf=0.92,Vminpu=0.92,Vmaxpu=1.5,model=1,daily=RES2_5,status=variable
new load.3000283501M1 bus1=RML1051923793.1.2.3.0,Phases=3,kv=0.22,kW=0.99662,pf=0.92,Vminpu=0.92,Vmaxpu=1.5,model=1,daily=RES3_4,status=variable
new load.3000283502M1 bus1=RML1051923800.1.2.3.0,Phases=3,kv=0.22,kW=0.88466,pf=0.92,Vminpu=0.92,Vmaxpu=1.5,model=1,daily=RES2_5,status=variable
new load.3000283503M1 bus1=RML1051923800.1.2.3.0,Phases=3,kv=0.22,kW=0.57564,pf=0.92,Vminpu=0.92,Vmaxpu=1.5,model=1,daily=COM1_8,status=variable
new load.3000283504M1 bus1=RML1051923786.1.2.3.0,Phases=3,kv=0.22,kW=2.05944,pf=0.92,Vminpu=0.92,Vmaxpu=1.5,model=1,daily=COM1_8,status=variable
new load.3000283505M1 bus1=RML1051923800.1.2.3.0,Phases=3,kv=0.22,kW=2.8427,pf=0.92,Vminpu=0.92,Vmaxpu=1.5,model=1,daily=COM3_5,status=variable
new load.3000283506M1 bus1=RML1051924248.1.2.3.0,Phases=3,kv=0.22,kW=2.36856,pf=0.92,Vminpu=0.92,Vmaxpu=1.5,model=1,daily=COM3_5,status=variable
new load.3000283509M1 bus1=RML1051922267.1.2.3.0,Phases=3,kv=0.22,kW=2.52298,pf=0.92,Vminpu=0.92,Vmaxpu=1.5,model=1,daily=COM3_5,status=variable
new load.3000283510M1 bus1=RML1051922246.3.0,Phases=1,kv=0.127,kW=0.30272,pf=0.92,Vminpu=0.92,Vmaxpu=1.5,model=1,daily=COM1_8,status=variable
new load.3000283511M1 bus1=RML1051922260.1.2.3.0,Phases=3,kv=0.22,kW=0.69882,pf=0.92,Vminpu=0.92,Vmaxpu=1.5,model=1,daily=COM4_5,status=variable
new load.3000283512M1 bus1=RML1051922260.1.2.3.0,Phases=3,kv=0.22,kW=4.1129,pf=0.92,Vminpu=0.92,Vmaxpu=1.5,model=1,daily=COM3_5,status=variable
new load.3000283513M1 bus1=RML1051922253.3.0,Phases=1,kv=0.127,kW=0.24812,pf=0.92,Vminpu=0.92,Vmaxpu=1.5,model=1,daily=COM1_8,status=variable
new load.3000283514M1 bus1=RML1051922274.1.2.3.0,Phases=3,kv=0.22,kW=1.53838,pf=0.92,Vminpu=0.92,Vmaxpu=1.5,model=1,daily=COM1_8,status=variable
new load.3000283516M1 bus1=RML1051923254.1.2.3.0,Phases=3,kv=0.22,kW=0.794,pf=0.92,Vminpu=0.92,Vmaxpu=1.5,model=1,daily=COM1_8,status=variable
new load.3000283517M1 bus1=RML1051923261.1.2.3.0,Phases=3,kv=0.22,kW=0.40874,pf=0.92,Vminpu=0.92,Vmaxpu=1.5,model=1,daily=RES2_5,status=variable
new load.3000283518M1 bus1=RML1051923261.1.2.3.0,Phases=3,kv=0.22,kW=1.67858,pf=0.92,Vminpu=0.92,Vmaxpu=1.5,model=1,daily=COM2_5,status=variable
new load.3000283519M1 bus1=RML1052335806.1.2.3.0,Phases=3,kv=0.22,kW=4.87196,pf=0.92,Vminpu=0.92,Vmaxpu=1.5,model=1,daily=COM3_5,status=variable
new load.3000283520M1 bus1=RML1060383889.1.2.3.0,Phases=3,kv=0.22,kW=7.39494,pf=0.92,Vminpu=0.92,Vmaxpu=1.5,model=1,daily=COM3_5,status=variable
new load.3000283528M1 bus1=RML1051923317.1.2.3.0,Phases=3,kv=0.22,kW=25.70568,pf=0.92,Vminpu=0.92,Vmaxpu=1.5,model=1,daily=IND4_2,status=variable
new load.3000283529M1 bus1=RML1051923310.1.2.3.0,Phases=3,kv=0.22,kW=0.16872,pf=0.92,Vminpu=0.92,Vmaxpu=1.5,model=1,daily=COM1_8,status=variable
new load.3000283532M1 bus1=RML1051923331.1.2.3.0,Phases=3,kv=0.22,kW=2.6592,pf=0.92,Vminpu=0.92,Vmaxpu=1.5,model=1,daily=IND3_8,status=variable
new load.3000283533M1 bus1=RML1051923324.1.2.3.0,Phases=3,kv=0.22,kW=2.75022,pf=0.92,Vminpu=0.92,Vmaxpu=1.5,model=1,daily=COM2_5,status=variable
new load.3000283591M1 bus1=RML1051925760.1.3.0,Phases=2,kv=0.22,kW=0.13894,pf=0.92,Vminpu=0.92,Vmaxpu=1.5,model=1,daily=COM1_8,status=variable
new load.3000283592M1 bus1=RML1051925788.2.3.0,Phases=2,kv=0.22,kW=1.58142,pf=0.92,Vminpu=0.92,Vmaxpu=1.5,model=1,daily=RES4_6,status=variable
new load.3000283601M1 bus1=RML1051925732.1.2.3.0,Phases=3,kv=0.22,kW=0.51114,pf=0.92,Vminpu=0.92,Vmaxpu=1.5,model=1,daily=COM1_8,status=variable
new load.3000283602M1 bus1=RML1051925732.1.2.3.0,Phases=3,kv=0.22,kW=1.80138,pf=0.92,Vminpu=0.92,Vmaxpu=1.5,model=1,daily=COM1_8,status=variable
new load.3000283603M1 bus1=RML1051925732.1.2.3.0,Phases=3,kv=0.22,kW=2.23178,pf=0.92,Vminpu=0.92,Vmaxpu=1.5,model=1,daily=COM2_5,status=variable
new load.3000283604M1 bus1=RML1051925732.1.2.3.0,Phases=3,kv=0.22,kW=1.877,pf=0.92,Vminpu=0.92,Vmaxpu=1.5,model=1,daily=COM3_5,status=variable
new load.3000283605M1 bus1=RML1051925732.1.2.3.0,Phases=3,kv=0.22,kW=0.48136,pf=0.92,Vminpu=0.92,Vmaxpu=1.5,model=1,daily=COM1_8,status=variable
new load.3000283606M1 bus1=RML1051925732.1.2.3.0,Phases=3,kv=0.22,kW=2.21282,pf=0.92,Vminpu=0.92,Vmaxpu=1.5,model=1,daily=COM2_5,status=variable
new load.3000283607M1 bus1=RML1051925732.1.2.3.0,Phases=3,kv=0.22,kW=4.28688,pf=0.92,Vminpu=0.92,Vmaxpu=1.5,model=1,daily=COM3_5,status=variable
new load.3000283608M1 bus1=RML1051925732.1.2.3.0,Phases=3,kv=0.22,kW=2.96232,pf=0.92,Vminpu=0.92,Vmaxpu=1.5,model=1,daily=COM3_5,status=variable
new load.3000283609M1 bus1=RML1051925732.1.2.3.0,Phases=3,kv=0.22,kW=1.70518,pf=0.92,Vminpu=0.92,Vmaxpu=1.5,model=1,daily=COM3_5,status=variable
new load.3000283611M1 bus1=RML1051925732.1.2.3.0,Phases=3,kv=0.22,kW=1.84108,pf=0.92,Vminpu=0.92,Vmaxpu=1.5,model=1,daily=COM1_8,status=variable
new load.3000283612M1 bus1=RML1051925732.1.2.3.0,Phases=3,kv=0.22,kW=0.81242,pf=0.92,Vminpu=0.92,Vmaxpu=1.5,model=1,daily=COM2_5,status=variable
new load.3000283613M1 bus1=RML1051925732.1.2.3.0,Phases=3,kv=0.22,kW=1.86094,pf=0.92,Vminpu=0.92,Vmaxpu=1.5,model=1,daily=COM1_8,status=variable
new load.3000283615M1 bus1=RML1051925732.1.2.3.0,Phases=3,kv=0.22,kW=0.66498,pf=0.92,Vminpu=0.92,Vmaxpu=1.5,model=1,daily=COM1_8,status=variable
new load.3000283617M1 bus1=RML1051922785.1.2.3.0,Phases=3,kv=0.22,kW=2.05718,pf=0.92,Vminpu=0.92,Vmaxpu=1.5,model=1,daily=RES4_6,status=variable
new load.3000283623M1 bus1=RML1051928819.2.3.0,Phases=2,kv=0.22,kW=0.52106,pf=0.92,Vminpu=0.92,Vmaxpu=1.5,model=1,daily=COM1_8,status=variable
new load.3000283625M1 bus1=RML1051928840.1.0,Phases=1,kv=0.127,kW=0.05748,pf=0.92,Vminpu=0.92,Vmaxpu=1.5,model=1,daily=RES1_3,status=variable
new load.3000283626M1 bus1=RML1051928917.1.2.3.0,Phases=3,kv=0.22,kW=0.38708,pf=0.92,Vminpu=0.92,Vmaxpu=1.5,model=1,daily=COM1_8,status=variable
new load.3000283627M1 bus1=RML1051928910.3.0,Phases=1,kv=0.127,kW=0.84546,pf=0.92,Vminpu=0.92,Vmaxpu=1.5,model=1,daily=RES2_5,status=variable
new load.3000283628M1 bus1=RML1051928903.2.3.0,Phases=2,kv=0.22,kW=1.60192,pf=0.92,Vminpu=0.92,Vmaxpu=1.5,model=1,daily=RES3_4,status=variable
new load.3000283629M1 bus1=RML1051928896.1.2.3.0,Phases=3,kv=0.22,kW=0.50586,pf=0.92,Vminpu=0.92,Vmaxpu=1.5,model=1,daily=RES1_3,status=variable
new load.3000283630M1 bus1=RML1051928952.3.0,Phases=1,kv=0.127,kW=0.5711,pf=0.92,Vminpu=0.92,Vmaxpu=1.5,model=1,daily=RES2_5,status=variable
new load.3000283632M1 bus1=RML1051929008.2.3.0,Phases=2,kv=0.22,kW=0.78178,pf=0.92,Vminpu=0.92,Vmaxpu=1.5,model=1,daily=RES1_3,status=variable
new load.3000283633M1 bus1=RML1051929001.1.0,Phases=1,kv=0.127,kW=1.14336,pf=0.92,Vminpu=0.92,Vmaxpu=1.5,model=1,daily=RES3_4,status=variable
new load.3000283634M1 bus1=RML1051928980.1.0,Phases=1,kv=0.127,kW=0.49272,pf=0.92,Vminpu=0.92,Vmaxpu=1.5,model=1,daily=RES2_5,status=variable
new load.3000283635M1 bus1=RML1051928966.1.2.0,Phases=2,kv=0.22,kW=0.68308,pf=0.92,Vminpu=0.92,Vmaxpu=1.5,model=1,daily=RES2_5,status=variable
new load.3000283636M1 bus1=RML1051929043.1.2.3.0,Phases=3,kv=0.22,kW=0.71668,pf=0.92,Vminpu=0.92,Vmaxpu=1.5,model=1,daily=RES2_5,status=variable
new load.3000283640M1 bus1=RML1051929036.3.0,Phases=1,kv=0.127,kW=0.73578,pf=0.92,Vminpu=0.92,Vmaxpu=1.5,model=1,daily=RES1_3,status=variable
new load.3000283641M1 bus1=RML1055735755.1.2.3.0,Phases=3,kv=0.22,kW=0.82378,pf=0.92,Vminpu=0.92,Vmaxpu=1.5,model=1,daily=COM1_8,status=variable
new load.3000283642M1 bus1=RML1051928973.1.0,Phases=1,kv=0.127,kW=1.31456,pf=0.92,Vminpu=0.92,Vmaxpu=1.5,model=1,daily=RES3_4,status=variable
new load.3000283643M1 bus1=RML1056683296.1.2.3.0,Phases=3,kv=0.22,kW=0.43688,pf=0.92,Vminpu=0.92,Vmaxpu=1.5,model=1,daily=RES1_3,status=variable
new load.3000283644M1 bus1=RML1051929015.2.0,Phases=1,kv=0.127,kW=1.18004,pf=0.92,Vminpu=0.92,Vmaxpu=1.5,model=1,daily=RES3_4,status=variable
new load.3000283645M1 bus1=RML1051929029.2.0,Phases=1,kv=0.127,kW=0.98258,pf=0.92,Vminpu=0.92,Vmaxpu=1.5,model=1,daily=COM1_8,status=variable
new load.3000283646M1 bus1=RML1051928959.1.3.0,Phases=2,kv=0.22,kW=0.50392,pf=0.92,Vminpu=0.92,Vmaxpu=1.5,model=1,daily=RES2_5,status=variable
new load.3000283647M1 bus1=RML1051928945.1.3.0,Phases=2,kv=0.22,kW=1.4613,pf=0.92,Vminpu=0.92,Vmaxpu=1.5,model=1,daily=RES3_4,status=variable
new load.3000283649M1 bus1=RML1051928931.1.0,Phases=1,kv=0.127,kW=0.6775,pf=0.92,Vminpu=0.92,Vmaxpu=1.5,model=1,daily=RES2_5,status=variable
new load.3000283650M1 bus1=RML1051928889.1.2.3.0,Phases=3,kv=0.22,kW=0.73908,pf=0.92,Vminpu=0.92,Vmaxpu=1.5,model=1,daily=RES2_5,status=variable
new load.3000283651M1 bus1=RML1051928889.1.2.3.0,Phases=3,kv=0.22,kW=0.6439,pf=0.92,Vminpu=0.92,Vmaxpu=1.5,model=1,daily=RES2_5,status=variable
new load.3000283652M1 bus1=RML1051928889.1.2.3.0,Phases=3,kv=0.22,kW=0.54312,pf=0.92,Vminpu=0.92,Vmaxpu=1.5,model=1,daily=RES2_5,status=variable
new load.3000283653M1 bus1=RML1051928889.1.2.3.0,Phases=3,kv=0.22,kW=0.0115,pf=0.92,Vminpu=0.92,Vmaxpu=1.5,model=1,daily=RES1_3,status=variable
new load.3000283655M1 bus1=RML1051928924.1.2.0,Phases=2,kv=0.22,kW=1.00784,pf=0.92,Vminpu=0.92,Vmaxpu=1.5,model=1,daily=RES2_5,status=variable
new load.3000283656M1 bus1=RML1051928833.1.2.0,Phases=2,kv=0.22,kW=0.6898,pf=0.92,Vminpu=0.92,Vmaxpu=1.5,model=1,daily=RES1_3,status=variable
new load.3000283657M1 bus1=RML1051928847.1.0,Phases=1,kv=0.127,kW=1.70586,pf=0.92,Vminpu=0.92,Vmaxpu=1.5,model=1,daily=RES3_4,status=variable
new load.3000283658M1 bus1=RML1051928854.1.2.3.0,Phases=3,kv=0.22,kW=1.74156,pf=0.92,Vminpu=0.92,Vmaxpu=1.5,model=1,daily=RES5_6,status=variable
new load.3000826010M1 bus1=RML1051904039.1.2.3.0,Phases=3,kv=0.22,kW=1.63972,pf=0.92,Vminpu=0.92,Vmaxpu=1.5,model=1,daily=RES3_15,status=variable
new load.3000826014M1 bus1=RML1051902821.1.2.3.0,Phases=3,kv=0.22,kW=1.52336,pf=0.92,Vminpu=0.92,Vmaxpu=1.5,model=1,daily=RES4_17,status=variable
new load.3000826018M1 bus1=RML1051902835.2.3.0,Phases=2,kv=0.22,kW=0.36474,pf=0.92,Vminpu=0.92,Vmaxpu=1.5,model=1,daily=RES1_17,status=variable
new load.3000826021M1 bus1=RML1051902842.1.0,Phases=1,kv=0.127,kW=0.76062,pf=0.92,Vminpu=0.92,Vmaxpu=1.5,model=1,daily=RES2_17,status=variable
new load.3000826022M1 bus1=RML1051902877.1.2.3.0,Phases=3,kv=0.22,kW=2.37018,pf=0.92,Vminpu=0.92,Vmaxpu=1.5,model=1,daily=COM2_19,status=variable
new load.3000826023M1 bus1=RML1051902863.2.3.0,Phases=2,kv=0.22,kW=0.04624,pf=0.92,Vminpu=0.92,Vmaxpu=1.5,model=1,daily=RES1_17,status=variable
new load.3000826024M1 bus1=RML1051902870.2.3.0,Phases=2,kv=0.22,kW=0.7783,pf=0.92,Vminpu=0.92,Vmaxpu=1.5,model=1,daily=COM1_21,status=variable
new load.3000826025M1 bus1=RML1051902856.1.0,Phases=1,kv=0.127,kW=0.22892,pf=0.92,Vminpu=0.92,Vmaxpu=1.5,model=1,daily=COM1_21,status=variable
new load.3000826027M1 bus1=RML1051902723.1.2.0,Phases=2,kv=0.22,kW=0.76062,pf=0.92,Vminpu=0.92,Vmaxpu=1.5,model=1,daily=RES2_17,status=variable
new load.3000826028M1 bus1=RML1051902744.3.0,Phases=1,kv=0.127,kW=1.83686,pf=0.92,Vminpu=0.92,Vmaxpu=1.5,model=1,daily=RES4_17,status=variable
new load.3000826029M1 bus1=RML1051902744.3.0,Phases=1,kv=0.127,kW=0.29848,pf=0.92,Vminpu=0.92,Vmaxpu=1.5,model=1,daily=RES2_17,status=variable
new load.3000826030M1 bus1=RML1051902737.1.2.3.0,Phases=3,kv=0.22,kW=1.75972,pf=0.92,Vminpu=0.92,Vmaxpu=1.5,model=1,daily=RES5_16,status=variable
...
